/*--------------------------------*- C++ -*----------------------------------*\
| =========                 |                                                 |
| \\      /  F ield         | OpenFOAM: The Open Source CFD Toolbox           |
|  \\    /   O peration     | Version:  3.0.1                                 |
|   \\  /    A nd           | Web:      www.OpenFOAM.org                      |
|    \\/     M anipulation  |                                                 |
\*---------------------------------------------------------------------------*/
FoamFile
{
    format      ascii;
    class       vectorField;
    location    "constant";
    object      cloudPositions;
}
// * * * * * * * * * * * * * * * * * * * * * * * * * * * * * * * * * * * * * //
5 
(
 (0.0 0.0 -60.0)
 (0.0 0.0 -55.0)
 (0.0 0.0 -50.0)
 (0.0 0.0 -45.0)
 (0.0 0.0 -40.0)
) 
// * * * * * * * * * * * * * * * * * * * * * * * * * * * * * * * * * * * * * //
 
