/*--------------------------------*- C++ -*----------------------------------*\
  =========                 |
  \\      /  F ield         | OpenFOAM: The Open Source CFD Toolbox
   \\    /   O peration     | Website:  https://openfoam.org
    \\  /    A nd           | Version:  9
     \\/     M anipulation  |
\*---------------------------------------------------------------------------*/
FoamFile
{
    format      ascii;
    class       IOPosition;
    location    "0.001/lagrangian/cloud";
    object      positions;
}
// * * * * * * * * * * * * * * * * * * * * * * * * * * * * * * * * * * * * * //

5
(
(0 0.5 0.499999558205 4.4179525954e-07) 21204 42088 1
(0 0.499999558205 0.5 4.4179525954e-07) 21224 42126 2
(0 0.5 0.499999558205 4.4179525954e-07) 21254 42183 1
(0 0.499999558205 0.5 4.4179525954e-07) 21274 42221 2
(0 0.5 0.499999558205 4.4179525954e-07) 21304 42278 1
)


// ************************************************************************* //
