/*--------------------------------*- C++ -*----------------------------------*\
  =========                 |
  \\      /  F ield         | OpenFOAM: The Open Source CFD Toolbox
   \\    /   O peration     | Website:  https://openfoam.org
    \\  /    A nd           | Version:  8
     \\/     M anipulation  |
\*---------------------------------------------------------------------------*/
FoamFile
{
    version     2.0;
    format      ascii;
    class       dictionary;
    object      blockMeshDict;
}
// * * * * * * * * * * * * * * * * * * * * * * * * * * * * * * * * * * * * * //

convertToMeters 1;

mr  -5.0;	// Conduit radius
r   5.0;	// Conduit radius
d   -100.0;	// Conduit depth
h   500.0;      // Domain height
mw  -300.0;      // Domain width
w   300.0;      // Domain width
t   10.0;      // Domain thickness

vertices
(
    ($mw  0.0 0.0)
    ($mr  0.0 0.0)
    ($mr  $t  0.0)
    ($mw  $t  0.0)
    ($mw  0.0  $h)
    ($mr  0.0  $h)
    ($mr  $t   $h)
    ($mw  $t   $h)
    ($r   0.0 0.0)
    ($r   $t  0.0)
    ($r   0.0  $h)
    ($r   $t   $h)
    ($w   0.0 0.0)
    ($w   $t  0.0)
    ($w   0.0  $h)
    ($w   $t   $h)
    ($mr  0.0  $d)
    ($r   0.0  $d)
    ($r   $t   $d)
    ($mr  $t   $d)
);

blocks
(
    hex (0 1 2 3 4 5 6 7) (100 1 100) simpleGrading (0.15625 1 5)
    hex (1 8 9 2 5 10 11 6) (10 1 100) simpleGrading (1 1 5)
    hex (8 12 13 9 10 14 15 11) (100 1 100) simpleGrading (6.4 1 5)
    hex (16 17 18 19 1 8 9 2) (10 1 50) simpleGrading (1 1 1)
);

edges
(
);

patches
(
    patch outlet
    (
        (4 5 6 7)
	(5 10 11 6)
	(10 14 15 11)
    )
    patch sides
    (
	(4 7 3 0)
	(15 14 12 13)
    )
    wall terrain
    (
        (3 2 1 0)
	(9 13 12 8)
    )
    wall conduitwalls
    (
        (1 2 19 16)
	(8 17 18 9)
    )
    wall conduitbottom
    (
        (19 18 17 16)
    )
    empty frontAndBack
    (
    	(4 0 1 5)
	(5 1 8 10)
	(10 8 12 14)
	(1 16 17 8)
	(7 6 2 3)
	(6 11 9 2)
	(11 15 13 9)
	(2 9 18 19)
    )
);

mergePatchPairs
(
);

// ************************************************************************* //
