/*--------------------------------*- C++ -*----------------------------------*\
  =========                 |
  \\      /  F ield         | OpenFOAM: The Open Source CFD Toolbox
   \\    /   O peration     | Website:  https://openfoam.org
    \\  /    A nd           | Version:  8
     \\/     M anipulation  |
\*---------------------------------------------------------------------------*/
FoamFile
{
    version     2.0;
    format      ascii;
    class       dictionary;
    location    "system";
    object      setFieldsDict;
}
// * * * * * * * * * * * * * * * * * * * * * * * * * * * * * * * * * * * * * //

defaultFieldValues
(
    volScalarFieldValue alpha.gas 0.99999
    volScalarFieldValue alpha.particles 0.00001
    volScalarFieldValue air.gas 0.99
    volScalarFieldValue H2O.gas 0.01    
);

regions
(
    boxToCell
    {
        box (-1000 0 -80) (1000 1000 0);
        fieldValues
        (
            volScalarFieldValue alpha.gas 0.5
            volScalarFieldValue alpha.particles 0.5
        );
    }
    boxToCell
    {
        box (-1000 0 -1000) (1000 1000 0);
        fieldValues
        (
            volScalarFieldValue p 5.0e06
            volScalarFieldValue T.gas 600.0
            volScalarFieldValue T.particles 600.0
            volScalarFieldValue air.gas 0.01
            volScalarFieldValue H2O.gas 0.99    
        );
    });


// ************************************************************************* //
