/*--------------------------------*- C++ -*----------------------------------*\
  =========                 |
  \\      /  F ield         | OpenFOAM: The Open Source CFD Toolbox
   \\    /   O peration     | Website:  https://openfoam.org
    \\  /    A nd           | Version:  8
     \\/     M anipulation  |
\*---------------------------------------------------------------------------*/
FoamFile
{
    version     2.0;
    format      ascii;
    class       dictionary;
    location    "system";
    object      setFieldsDict;
}
// * * * * * * * * * * * * * * * * * * * * * * * * * * * * * * * * * * * * * //

defaultFieldValues
(
    volScalarFieldValue alpha.air 1
    volScalarFieldValue alpha.particles 0
);

regions
(
    boxToCell
    {
        box (-1000 0 -1000) (1000 1000 0);
        fieldValues
        (
            volScalarFieldValue alpha.air 0.5
            volScalarFieldValue alpha.particles 0.5
            volScalarFieldValue p 5.0e06
            volScalarFieldValue T.air 600.0
            volScalarFieldValue T.particles 600.0
        );
    }
);


// ************************************************************************* //
