/*--------------------------------*- C++ -*----------------------------------*\
  =========                 |
  \\      /  F ield         | OpenFOAM: The Open Source CFD Toolbox
   \\    /   O peration     | Website:  https://openfoam.org
    \\  /    A nd           | Version:  dev
     \\/     M anipulation  |
\*---------------------------------------------------------------------------*/
FoamFile
{
    version     2.0;
    format      ascii;
    class       dictionary;
    location    "constant";
    object      phaseProperties;
}
// * * * * * * * * * * * * * * * * * * * * * * * * * * * * * * * * * * * * * //

type basicMultiphaseSystem;

phases (particles gas);

pMin 10000;

particles
{
    type          purePhaseModel;
    diameterModel constant;
    constantCoeffs
    {
        d               1e-4;
    }

    alphaMax        0.67;
    residualAlpha   1e-6;
}

gas
{
    type          multiComponentPhaseModel; //purePhaseModel;
    diameterModel isothermal; //constant;
    isothermalCoeffs
    {
        d0               3e-3;
        p0               1e5;
    }

    residualAlpha   1e-06;
}

blending
{
    default
    {
        type            none;
        continuousPhase gas;
    }
}

surfaceTension
(
    (particles and gas)
    {
        type            constant;
        sigma           0;
    }
);

aspectRatio
();

drag
(
    (particles in gas)
    {
        type timeScaleFiltered;
        minRelaxTime 1e-5;
   
        dragModel 
        {
            type            GidaspowErgunWenYu;
            residualRe      1e-3;
            swarmCorrection
            {
                type        none;
            }
        }
    }
);

virtualMass
(
    (particles in gas)
    {
        type            constantCoefficient;
        Cvm             0.5;
    }
);

heatTransfer
(
    (particles in gas)
    {
        type            RanzMarshall;
        residualAlpha   1e-3;
    }
);

phaseTransfer
();

lift
();

wallLubrication
();

turbulentDispersion
();

interfaceCompression
();

// ************************************************************************* //
